ZINC00062388
 OpenBabel01301617323D

 21 22  0  0  1  0  0  0  0  0999 V2000
   -0.2666   -4.8510   -3.4765 O   0  0  0  0  0
    3.4759    3.3590   -1.2868 O   0  0  0  0  0
   -1.2977    3.9536    2.5107 O   0  0  0  0  0
    1.4611    3.4896    2.3961 O   0  0  0  0  0
   -0.0732    1.4378    2.4276 O   0  0  0  0  0
   -0.0623   -4.8640   -1.3768 O   0  0  0  0  0
    2.8913    3.7935   -0.0574 C   0  0  0  0  0
    0.0021   -0.0041    0.0020 N   0  0  0  0  0
    1.3228    1.9556   -0.0001 O   0  0  0  0  0
   -0.3371   -0.6882   -3.5926 C   0  0  0  0  0
   -0.2368    0.0004   -2.3995 C   0  0  0  0  0
   -0.3181   -2.0707   -3.5984 C   0  0  0  0  0
   -0.0867   -2.0865   -1.2152 C   0  0  0  0  0
   -0.6969    3.4858    1.3015 C   0  0  0  0  0
    0.7607    3.9525    1.2397 C   0  0  0  0  0
   -0.7331    1.9547    1.2703 C   0  0  0  0  0
    1.4183    3.3813   -0.0193 C   0  0  0  0  0
   -0.0178    1.4608    0.0101 C   0  0  0  0  0
   -0.1054   -0.6973   -1.2058 C   0  0  0  0  0
   -0.1931   -2.7687   -2.4110 C   0  0  0  0  0
   -0.1728   -4.2486   -2.4221 N   0  0  0  0  0
  1 21  1  0  0  0
  2  7  1  0  0  0
  3 14  1  0  0  0
  4 15  1  0  0  0
  5 16  1  0  0  0
  6 21  2  0  0  0
  7 17  1  0  0  0
  8 18  1  0  0  0
  8 19  1  0  0  0
  9 17  1  0  0  0
  9 18  1  0  0  0
 10 11  1  0  0  0
 10 12  2  0  0  0
 11 19  2  0  0  0
 12 20  1  0  0  0
 13 19  1  0  0  0
 13 20  2  0  0  0
 14 15  1  0  0  0
 14 16  1  0  0  0
 15 17  1  0  0  0
 16 18  1  0  0  0
 20 21  1  0  0  0
M  CHG  2   7   1   9  -1
M  END
>  <MOLID>
ZINC00062388

>  <ENSEMBLE_TOTAL>
50

>  <ENSEMBLE_RMSD>
0.783 0.787 0.790 0.798 0.829 0.919 0.936 1.009 1.022 1.079 1.094 1.144 1.147 1.212 1.231 1.231 1.231 1.242 1.252 1.253 1.289 1.312 1.340 1.357 1.357 1.385 1.386 1.388 1.408 1.430 1.435 1.451 1.503 1.563 1.564 1.564 1.565 1.565 1.565 1.619 1.624 1.726 1.793 1.793 1.980 1.984 2.038 2.045 2.049 2.050

>  <ENSEMBLE_COORDS>
-0.4395 -1.4632 -3.2567 -0.2887 -0.6490 -2.0260 -0.2834 -1.2836 -0.7536 -0.4229 -2.7503 -0.7328 -0.5878 -3.5111 -1.9596 -0.5770 -2.8477 -3.1875 -0.7218 -5.0505 -1.9459 -1.4332 -5.6311 -1.1033 -0.1264 -5.7441 -2.8092 -0.0933 -0.5069 0.6352 -0.2497 1.0513 0.6762 -0.8144 1.4372 2.1145 -0.5467 2.8602 2.4992 0.8886 3.2065 2.2790 1.1778 3.0301 0.8095 1.1028 1.6195 0.5153 2.6407 3.5384 0.4785 2.8605 3.7726 -0.9873 1.0790 4.5577 2.6510 -0.9442 3.0587 3.9216 -2.2202 1.3052 2.1819
-0.4300 -1.4657 -3.2596 -0.2797 -0.6482 -2.0297 -0.2799 -1.2782 -0.7564 -0.4266 -2.7467 -0.7323 -0.5898 -3.5091 -1.9569 -0.5716 -2.8489 -3.1867 -0.7264 -5.0475 -1.9393 -1.4447 -5.6248 -1.0999 -0.1256 -5.7458 -2.7975 -0.0889 -0.5008 0.6288 -0.2523 1.0561 0.6711 -0.8132 1.4348 2.1060 -0.5391 2.8490 2.5032 0.8908 3.1998 2.2807 1.1722 3.0315 0.8115 1.0959 1.6254 0.5132 2.6360 3.5369 0.4776 2.8546 3.7758 -0.9881 1.0708 4.5509 2.6532 -0.9345 3.0336 3.9327 -2.2180 1.3219 2.1683
-0.4203 -1.4687 -3.2623 -0.2703 -0.6479 -2.0330 -0.2760 -1.2723 -0.7585 -0.4296 -2.7435 -0.7313 -0.5903 -3.5072 -1.9537 -0.5679 -2.8493 -3.1861 -0.7306 -5.0439 -1.9330 -1.4567 -5.6179 -1.0965 -0.1258 -5.7465 -2.7865 -0.0829 -0.4952 0.6220 -0.2554 1.0610 0.6664 -0.8107 1.4308 2.0980 -0.5315 2.8375 2.5071 0.8914 3.1939 2.2810 1.1650 3.0338 0.8130 1.0873 1.6322 0.5108 2.6316 3.5319 0.4770 2.8502 3.7787 -0.9879 1.0616 4.5441 2.6549 -0.9258 3.0092 3.9430 -2.2133 1.3392 2.1554
-0.2951 -1.4733 -3.2658 -0.1647 -0.6388 -2.0606 -0.2544 -1.1790 -0.7580 -0.4694 -2.6868 -0.7252 -0.6355 -3.4287 -1.9141 -0.5134 -2.8147 -3.1573 -0.8276 -4.9508 -1.8703 -1.6299 -5.4822 -1.0665 -0.1870 -5.6827 -2.6614 0.0416 -0.4547 0.5452 -0.1908 1.0495 0.6709 -0.6791 1.2785 2.0438 -0.0957 2.3661 2.7911 0.4574 3.3886 1.9897 1.3787 2.8096 1.0137 1.0395 1.7205 0.4525 1.8907 3.9297 0.0394 3.1278 3.5584 -0.7480 1.2444 4.1673 2.8891 -1.2271 2.9573 3.7265 -2.0104 1.5663 2.0654
-0.3523 -1.4941 -3.2697 -0.2198 -0.6506 -2.0560 -0.2704 -1.2291 -0.7618 -0.4514 -2.7234 -0.7213 -0.5977 -3.4862 -1.9280 -0.5171 -2.8578 -3.1666 -0.7698 -5.0075 -1.8917 -1.5301 -5.5657 -1.0747 -0.1621 -5.7373 -2.7336 -0.0431 -0.4652 0.5674 -0.2713 1.0776 0.6429 -0.7508 1.3800 2.0449 -0.4482 2.7264 2.5513 0.8636 3.1850 2.2650 1.1151 3.0452 0.8157 1.0455 1.6799 0.4735 2.6068 3.5279 0.5044 2.8651 3.7624 -0.9517 0.8571 4.5852 2.5700 -0.7984 2.7932 4.0459 -2.1708 1.4542 2.0742
0.5538 -1.8467 -3.2406 0.3474 -0.8825 -2.1437 -0.3374 -1.2240 -0.9256 -0.8594 -2.6548 -0.8795 -0.6303 -3.5893 -2.0198 0.0941 -3.1448 -3.1359 -1.1077 -5.0701 -2.0238 -1.0611 -5.7856 -1.0179 -1.5133 -5.6332 -3.1477 -0.8111 -0.1256 0.1819 0.1816 0.7986 1.0715 -0.7099 1.3998 2.2728 -0.1960 2.6934 2.8681 0.1992 3.6638 1.8105 1.3066 3.0183 0.9970 0.6891 1.9288 0.2149 1.9701 4.1241 0.0427 3.2696 3.6717 -0.5419 0.6574 4.8760 2.4368 -1.2386 3.2701 3.7636 -0.8041 0.5120 3.4168
0.6109 -1.8715 -3.2187 0.3465 -0.8767 -2.1481 -0.4000 -1.2150 -0.9639 -0.8940 -2.6396 -0.9052 -0.5912 -3.6068 -2.0217 0.1463 -3.1727 -3.1209 -1.0938 -5.0938 -2.0322 -1.0609 -5.7937 -1.0121 -1.5267 -5.6438 -3.1430 -0.8898 -0.0951 0.1572 0.1375 0.8123 1.0472 -0.7184 1.4075 2.2980 -0.1751 2.6951 2.8902 0.2062 3.6683 1.8232 1.3028 3.0251 0.9893 0.6672 1.9404 0.1963 1.9640 4.1275 0.0357 3.2692 3.6839 -0.5432 0.6820 4.8779 2.4492 -1.1903 3.2731 3.8021 -0.7924 0.4976 3.4204
0.0151 -1.8020 -3.3458 0.0670 -0.9428 -2.1205 -0.2589 -1.4689 -0.8051 -0.6646 -2.9497 -0.7974 -0.6854 -3.7764 -2.0996 -0.3374 -3.1349 -3.2892 -1.0427 -5.3661 -2.2146 -1.7192 -5.9768 -1.3646 -0.6343 -6.0790 -3.2709 -0.1172 -0.6190 0.6713 -0.2800 1.0503 0.8726 -0.5553 1.4288 2.4613 -0.1405 2.8291 2.9987 0.3601 3.8636 1.9467 1.4518 3.1727 0.9766 0.9181 1.8665 0.2795 2.0802 4.3072 -0.0676 3.5587 4.1428 -0.4437 0.9459 4.9961 2.6446 -1.0761 3.4596 3.9478 -1.8854 0.9989 3.0199
-0.0883 -1.8530 -3.4070 -0.0221 -0.9688 -2.1831 -0.2928 -1.4947 -0.8511 -0.6442 -2.9829 -0.8167 -0.6908 -3.8294 -2.1119 -0.4030 -3.1909 -3.3241 -1.0184 -5.4356 -2.2060 -1.4742 -6.1090 -1.2518 -0.8159 -6.1081 -3.3489 -0.1604 -0.6287 0.6267 -0.2872 1.0519 0.8261 -0.6404 1.4765 2.4037 -0.1846 2.8794 2.9804 0.4379 3.9232 2.0006 1.5085 3.2171 1.0124 0.9524 1.8883 0.2889 2.1380 4.3490 -0.0687 3.6771 4.3254 -0.2909 1.0250 5.0005 2.7807 -1.0714 3.5096 3.9806 -1.9452 0.9801 2.9601
-0.5361 -1.9673 -3.5580 -0.3868 -1.0226 -2.3697 -0.4033 -1.5222 -0.9811 -0.5841 -3.0293 -0.8726 -0.7257 -3.9335 -2.1410 -0.6807 -3.3255 -3.3986 -0.9056 -5.5719 -2.1525 -1.4347 -6.2368 -1.1935 -0.5309 -6.2886 -3.2289 -0.1599 -0.6058 0.4590 -0.2984 1.1121 0.6842 -0.6559 1.5077 2.3143 -0.5271 3.1460 2.7324 0.5996 3.9949 2.1840 1.6419 3.2906 1.1085 1.0109 2.0076 0.2205 2.3805 4.5057 0.0825 3.9469 4.5700 0.0290 1.1647 4.9804 3.0738 -0.9078 3.4093 4.1622 -2.0076 0.9792 2.8456
-0.5084 -1.9499 -3.5434 -0.3666 -1.0131 -2.3492 -0.4019 -1.5219 -0.9678 -0.5910 -3.0302 -0.8669 -0.7274 -3.9243 -2.1394 -0.6646 -3.3080 -3.3923 -0.9147 -5.5604 -2.1618 -1.4207 -6.2297 -1.1984 -0.5658 -6.2695 -3.2509 -0.1699 -0.6127 0.4782 -0.2914 1.0912 0.7080 -0.6491 1.4921 2.3365 -0.5243 3.1509 2.7226 0.8801 3.7709 2.3943 1.5866 3.3185 1.0453 1.0514 1.9706 0.2662 2.3565 4.5085 0.1052 3.9342 4.5675 0.0199 0.8703 5.1690 2.7578 -0.8873 3.4128 4.1642 -1.9958 0.9678 2.8718
0.7592 -1.9917 -3.0823 0.7178 -1.1237 -1.8703 -0.0171 -1.5029 -0.6895 -0.7307 -2.8528 -0.7841 -0.6457 -3.6884 -2.0632 0.0982 -3.1972 -3.1347 -1.3293 -5.1172 -2.2660 -2.4452 -5.3887 -1.8029 -0.7321 -6.0605 -2.9984 0.0438 -0.6373 0.7613 -0.2592 0.9954 0.8778 -0.5455 1.3840 2.4563 -0.5450 2.9332 2.6791 0.7908 3.5647 2.2028 0.9573 3.3254 0.6943 0.9832 1.8030 0.4066 2.3677 3.9663 0.2366 2.4229 4.4431 -1.2139 0.7587 4.9746 2.5024 -0.8244 3.2684 4.1045 -1.8254 0.9023 2.9838
-0.7751 -2.0346 -3.6225 -0.5647 -1.0612 -2.4626 -0.4417 -1.5284 -1.0538 -0.5511 -3.0423 -0.9126 -0.7697 -3.9801 -2.1556 -0.8367 -3.3972 -3.4319 -0.8837 -5.6304 -2.1288 -1.4925 -6.2982 -1.2021 -0.3864 -6.3702 -3.1483 -0.0896 -0.5857 0.3630 -0.2261 1.1425 0.6470 -0.6744 1.5207 2.2635 -0.2330 2.9310 3.0144 0.5908 4.0351 2.2310 1.7175 3.3608 1.1383 1.1219 2.0451 0.2455 2.4730 4.6010 0.1311 4.0716 4.7611 0.1330 1.1865 5.0015 3.2010 -1.1974 3.5227 3.9892 -2.0390 1.0070 2.7611
1.0454 -2.1640 -2.8481 0.6854 -1.1423 -1.8335 -0.3533 -1.3684 -0.8552 -1.0454 -2.7410 -0.9710 -0.6125 -3.7452 -2.0463 0.4095 -3.3776 -2.9220 -1.2633 -5.1931 -2.2825 -2.4634 -5.4358 -2.0767 -0.5381 -6.1952 -2.7956 -0.9203 -0.1782 0.2085 0.0466 0.8541 1.0936 -0.8518 1.5708 2.2807 -0.0590 2.7164 2.9917 0.4029 3.8023 1.9710 1.1134 3.2780 0.7783 0.6529 1.9872 0.1862 2.3997 3.9819 0.2262 2.4219 4.5184 -1.2363 1.0813 4.8451 2.6904 -0.8589 3.3281 4.0824 -1.2931 0.6585 3.3580
-0.6815 -2.1314 -3.6750 -0.4825 -1.1306 -2.5306 -0.4163 -1.5585 -1.0882 -0.5691 -3.0742 -0.9189 -0.7773 -4.0327 -2.1619 -0.7889 -3.4805 -3.4506 -0.9353 -5.6912 -2.1233 -1.6627 -6.3356 -1.2550 -0.3517 -6.4587 -3.0776 -0.0910 -0.5859 0.3327 -0.1807 1.1743 0.6011 -0.7286 1.5485 2.2452 -0.5232 3.1870 2.8452 0.9366 3.8435 2.5958 1.4949 3.5666 0.9518 1.3092 1.9436 0.4401 3.1666 4.1540 0.7352 3.5014 5.3153 -0.3452 0.8813 5.2869 3.0027 -0.9398 3.3738 4.2951 -2.1615 1.0861 2.5818
-0.6792 -2.1329 -3.6764 -0.4881 -1.1295 -2.5327 -0.4271 -1.5524 -1.0894 -0.5690 -3.0684 -0.9206 -0.7657 -4.0329 -2.1544 -0.7782 -3.4803 -3.4499 -0.9327 -5.6838 -2.1134 -1.6650 -6.3347 -1.2543 -0.3578 -6.4567 -3.0788 -0.1075 -0.5774 0.3188 -0.1747 1.1657 0.6046 -0.7186 1.5392 2.2462 -0.5002 3.1683 2.8662 0.9238 3.8490 2.5949 1.4970 3.5603 0.9465 1.3143 1.9395 0.4410 3.1653 4.1558 0.7301 3.5007 5.3165 -0.3505 0.8756 5.2834 3.0062 -0.9432 3.3795 4.2896 -2.1695 1.0916 2.5763
-0.6828 -2.1302 -3.6752 -0.4810 -1.1303 -2.5305 -0.4130 -1.5604 -1.0882 -0.5693 -3.0760 -0.9199 -0.7791 -4.0336 -2.1645 -0.7941 -3.4805 -3.4518 -0.9355 -5.6937 -2.1254 -1.6640 -6.3347 -1.2560 -0.3490 -6.4600 -3.0755 -0.0863 -0.5881 0.3366 -0.1799 1.1747 0.6029 -0.7298 1.5506 2.2466 -0.5270 3.1898 2.8406 0.9379 3.8434 2.5942 1.4947 3.5687 0.9537 1.3068 1.9456 0.4393 3.1664 4.1536 0.7370 3.5014 5.3149 -0.3429 0.8847 5.2871 3.0020 -0.9414 3.3737 4.2951 -2.1600 1.0855 2.5820
1.4735 -2.2441 -2.2547 1.1007 -1.2339 -1.3045 -0.0990 -1.2180 -0.5686 -1.0052 -2.4234 -1.0075 -0.5284 -3.4027 -1.8060 0.6370 -3.2426 -2.5294 -1.4257 -4.5876 -2.2007 -2.1054 -5.2037 -1.3552 -1.4622 -4.9694 -3.3969 -0.7172 -0.1025 0.1550 0.1378 0.8583 0.8945 -0.6057 1.2564 2.1099 -0.5138 2.5820 2.4833 0.4381 3.4093 1.9852 1.0788 2.9001 0.7835 0.3348 2.0551 0.1302 1.5376 4.0530 -0.1147 2.7765 3.5869 -0.9499 -0.2829 4.4938 1.7205 -0.6637 2.7444 4.0405 -0.1058 0.6886 3.1856
1.1288 -2.1357 -2.8974 0.9813 -1.2016 -1.7582 0.0357 -1.4221 -0.6986 -0.7839 -2.6934 -0.8348 -0.5917 -3.6062 -2.0116 0.3509 -3.2760 -2.9867 -1.3960 -4.9317 -2.2095 -2.6045 -5.0052 -1.9567 -0.8098 -6.0021 -2.7027 -0.0022 -0.5388 0.6866 -0.3339 1.0584 0.7554 -0.6835 1.3868 2.3015 -0.4369 2.8218 2.7233 0.8809 3.3162 2.2316 0.8449 3.2559 0.7131 0.8879 1.8271 0.3350 2.0994 4.0584 0.1228 1.9645 4.3432 -1.3400 1.0726 4.6679 2.6887 -0.5329 2.9193 4.2030 -2.0719 1.1579 2.6355
-0.9009 -2.1371 -3.6845 -0.6506 -1.1317 -2.5527 -0.4503 -1.5584 -1.1207 -0.5298 -3.0794 -0.9462 -0.7932 -4.0481 -2.1748 -0.9272 -3.4939 -3.4582 -0.8887 -5.7133 -2.1293 -1.5746 -6.3771 -1.2279 -0.3079 -6.4637 -3.0954 -0.0485 -0.5698 0.2817 -0.1853 1.1849 0.5893 -0.6787 1.5382 2.2431 -0.5341 3.1855 2.8171 0.9088 3.8663 2.5679 1.7308 3.4521 1.1435 1.2230 2.0708 0.2915 2.5746 4.6900 0.1922 4.1779 4.9307 0.2651 0.8824 5.2859 3.0384 -0.9397 3.3535 4.3008 -2.0879 1.0146 2.6589
1.2934 -2.3670 -2.6018 0.8948 -1.3157 -1.6267 -0.2936 -1.4421 -0.8068 -1.0851 -2.7437 -1.0288 -0.6175 -3.7869 -2.0590 0.5584 -3.5252 -2.7686 -1.3905 -5.1731 -2.4275 -2.2147 -5.7157 -1.6731 -1.1399 -5.8110 -3.5767 -0.8951 -0.2385 0.2399 0.0504 0.8577 1.1060 -0.7966 1.5558 2.3229 -0.4507 2.9746 2.7622 0.8285 3.6375 2.2344 1.2958 3.2156 0.8330 0.5790 2.0094 0.1519 1.5789 4.4656 -0.2274 2.9169 4.3918 -0.9804 0.7813 5.0596 2.4953 -0.6762 3.2810 4.1921 -1.2175 0.6704 3.4390
-0.8260 -2.2178 -3.7331 -0.5899 -1.1876 -2.6183 -0.4373 -1.5825 -1.1540 -0.5485 -3.1076 -0.9549 -0.7884 -4.0974 -2.1766 -0.8979 -3.5618 -3.4727 -0.9274 -5.7659 -2.1168 -1.6996 -6.4081 -1.2678 -0.3037 -6.5443 -3.0369 -0.0672 -0.5562 0.2512 -0.1161 1.1948 0.5784 -0.7314 1.5571 2.2193 -0.4625 3.1640 2.9076 0.9794 3.8756 2.6652 1.5713 3.6166 1.0184 1.3822 1.9923 0.4397 3.2244 4.2572 0.7675 3.5748 5.5110 -0.2206 0.8862 5.3338 3.1008 -0.9854 3.4010 4.3295 -2.2370 1.1258 2.4740
1.6552 -2.5770 -1.9162 1.2148 -1.4263 -1.0850 -0.1384 -1.3122 -0.6787 -1.0625 -2.3956 -1.1351 -0.5855 -3.4994 -1.9327 0.7581 -3.5528 -2.3101 -1.5361 -4.6021 -2.4209 -2.3859 -5.1129 -1.6630 -1.4511 -5.0390 -3.6087 -0.7293 -0.1080 0.1367 0.2189 0.8174 0.9686 -0.5823 1.2977 2.1858 -0.1695 2.5978 2.7446 0.0765 3.6098 1.7356 1.0834 3.0666 0.7850 0.5032 1.9653 0.1156 1.4211 4.1740 -0.3119 2.6745 3.8740 -1.0827 0.6375 4.7196 2.4150 -1.2155 3.0464 3.7636 -0.3871 0.4566 3.2943
-0.9578 -2.2729 -3.7474 -0.6695 -1.2308 -2.6578 -0.4291 -1.5978 -1.1939 -0.5211 -3.1277 -0.9732 -0.8176 -4.1389 -2.1835 -0.9821 -3.6183 -3.4779 -0.9489 -5.8139 -2.1025 -1.7407 -6.4532 -1.2520 -0.2989 -6.6055 -2.9998 0.0248 -0.5524 0.1942 -0.0736 1.2341 0.5245 -0.7222 1.5646 2.1738 -0.5182 3.1891 2.8225 0.9849 3.8354 2.7016 1.6153 3.6888 1.0239 1.4224 2.0507 0.3925 3.2880 4.3739 0.8296 3.6437 5.7343 -0.0860 0.9809 5.2489 3.2614 -1.0640 3.3970 4.2829 -2.2164 1.0947 2.4668
-0.9571 -2.2729 -3.7469 -0.6652 -1.2298 -2.6590 -0.4249 -1.5999 -1.1935 -0.5203 -3.1296 -0.9746 -0.8251 -4.1399 -2.1860 -0.9913 -3.6188 -3.4787 -0.9512 -5.8159 -2.1036 -1.7372 -6.4542 -1.2517 -0.2953 -6.6063 -2.9994 0.0324 -0.5558 0.1987 -0.0800 1.2370 0.5233 -0.7238 1.5671 2.1740 -0.5186 3.1892 2.8216 0.9868 3.8369 2.6969 1.6093 3.6938 1.0230 1.4175 2.0576 0.3887 3.2912 4.3715 0.8347 3.6475 5.7319 -0.0795 0.9813 5.2502 3.2600 -1.0648 3.3961 4.2825 -2.2113 1.0917 2.4696
1.6852 -2.6216 -1.7902 1.2085 -1.4712 -0.9888 -0.1751 -1.3530 -0.6733 -1.0718 -2.4023 -1.1788 -0.5649 -3.5242 -1.9508 0.7966 -3.5966 -2.2460 -1.5068 -4.6246 -2.4949 -2.4237 -5.0949 -1.7953 -1.3432 -5.0793 -3.6552 -0.8037 -0.1342 0.1622 0.1475 0.8296 0.9516 -0.6510 1.3505 2.2385 -0.0882 2.6204 2.8142 0.0980 3.6449 1.7390 1.0847 3.0838 0.7363 0.4455 1.9754 0.0599 1.4575 4.1902 -0.3335 2.7010 3.8593 -1.0984 0.6198 4.8247 2.3266 -0.9989 3.1149 3.8781 -0.6170 0.4081 3.2987
-1.1376 -2.2855 -3.7386 -0.8010 -1.2373 -2.6680 -0.4414 -1.5923 -1.2235 -0.4805 -3.1302 -1.0022 -0.8332 -4.1513 -2.1943 -1.0992 -3.6334 -3.4746 -0.9158 -5.8301 -2.1118 -1.6734 -6.4932 -1.2303 -0.2758 -6.6096 -3.0235 0.0635 -0.5358 0.1402 -0.0959 1.2498 0.5051 -0.6779 1.5497 2.1733 -0.5150 3.1731 2.8180 0.9569 3.8600 2.6649 1.8293 3.5705 1.1978 1.3111 2.1841 0.2365 2.7012 4.9217 0.3183 4.2988 5.3456 0.5029 0.9588 5.2596 3.2586 -1.0222 3.3592 4.3065 -2.1505 1.0254 2.5446
-1.1303 -2.2851 -3.7394 -0.7936 -1.2338 -2.6718 -0.4436 -1.5957 -1.2219 -0.4817 -3.1339 -1.0046 -0.8449 -4.1532 -2.1987 -1.1084 -3.6342 -3.4762 -0.9227 -5.8353 -2.1111 -1.6709 -6.4934 -1.2335 -0.2706 -6.6110 -3.0231 0.0744 -0.5399 0.1462 -0.1072 1.2531 0.5077 -0.6793 1.5540 2.1791 -0.5171 3.1765 2.8113 0.9732 3.8492 2.6777 1.8371 3.5662 1.1996 1.3184 2.1825 0.2379 2.6768 4.9421 0.3104 4.3027 5.3415 0.5147 0.9638 5.2651 3.2506 -1.0324 3.3627 4.3002 -2.1436 1.0225 2.5449
-1.0897 -2.3206 -3.7547 -0.7438 -1.2675 -2.6936 -0.4030 -1.6059 -1.2328 -0.4855 -3.1527 -0.9983 -0.8311 -4.1806 -2.1897 -1.0734 -3.6687 -3.4805 -0.9663 -5.8590 -2.0960 -1.7915 -6.4968 -1.2438 -0.3175 -6.6675 -2.9721 0.0967 -0.5399 0.1296 -0.0131 1.2411 0.5063 -0.6815 1.5564 2.1543 -0.5404 3.1736 2.7901 0.9648 3.8299 2.7046 1.6668 3.7422 1.0454 1.4458 2.1361 0.3103 3.3347 4.5092 0.8982 3.7480 5.8982 0.0924 0.9758 5.2295 3.3151 -1.1149 3.3891 4.2411 -2.1811 1.0539 2.4741
-1.2551 -2.3467 -3.7463 -0.8683 -1.2817 -2.7126 -0.4210 -1.5952 -1.2669 -0.4424 -3.1530 -1.0348 -0.8483 -4.1946 -2.2011 -1.1756 -3.6911 -3.4765 -0.9427 -5.8778 -2.1054 -1.7314 -6.5452 -1.2285 -0.3095 -6.6726 -3.0061 0.1233 -0.5224 0.0650 -0.0314 1.2620 0.4789 -0.6278 1.5342 2.1555 -0.4834 3.1194 2.8404 0.6467 4.1525 2.4037 1.8886 3.6107 1.2454 1.3986 2.2266 0.2288 2.7834 5.0259 0.3973 4.3549 5.5127 0.6740 1.1327 5.0931 3.4924 -1.0805 3.3485 4.2627 -2.1110 0.9946 2.5343
1.4732 -2.6890 -2.3785 1.0716 -1.5535 -1.4652 -0.2407 -1.5279 -0.8143 -1.1300 -2.7270 -1.1368 -0.6455 -3.8550 -2.0875 0.6313 -3.7526 -2.6379 -1.5210 -5.1730 -2.5412 -2.6035 -5.5088 -1.9928 -1.0926 -5.9631 -3.5315 -0.8540 -0.2554 0.1605 0.0887 0.8590 1.0702 -0.8424 1.5753 2.2776 -0.5029 3.0619 2.7835 0.8415 3.7019 2.2679 0.9604 3.5131 0.6628 0.7932 1.9775 0.1653 2.3978 4.2101 0.0960 2.2861 5.0711 -1.1910 0.8491 5.1069 2.6543 -0.6761 3.2876 4.2487 -1.2842 0.6408 3.3897
1.4223 -2.6965 -2.4773 1.0596 -1.5725 -1.5271 -0.2250 -1.5611 -0.8184 -1.1233 -2.7576 -1.1202 -0.6799 -3.8691 -2.1110 0.5704 -3.7557 -2.7165 -1.5744 -5.1805 -2.5484 -2.6101 -5.5507 -1.9271 -1.2117 -5.9249 -3.6014 -0.7996 -0.3165 0.2194 0.1576 0.8296 1.0588 -0.7123 1.5029 2.3607 -0.0214 2.8700 3.0457 0.2839 3.9942 1.9919 1.2723 3.4107 0.8222 0.6303 2.0706 0.0945 1.5812 4.6337 -0.3109 3.0547 4.8282 -0.7540 0.8509 5.1297 2.6832 -0.8708 3.3924 4.1594 -1.0548 0.5230 3.4765
-1.3834 -2.4152 -3.7511 -0.9603 -1.3246 -2.7570 -0.4288 -1.5969 -1.3140 -0.4146 -3.1692 -1.0699 -0.8748 -4.2364 -2.2103 -1.2585 -3.7547 -3.4749 -0.9596 -5.9273 -2.0972 -1.7559 -6.6109 -1.2194 -0.3173 -6.7285 -2.9946 0.1868 -0.5002 -0.0232 0.0180 1.2906 0.4392 -0.5946 1.5268 2.1288 -0.5162 3.1389 2.7707 0.9719 3.9119 2.7021 1.9098 3.6875 1.2516 1.4561 2.2859 0.2183 2.8348 5.1561 0.4895 4.3757 5.6731 0.8099 0.9236 5.2827 3.3703 -1.1590 3.3414 4.2117 -2.0539 0.9691 2.5196
-1.2562 -2.4752 -3.8269 -0.8387 -1.3682 -2.8332 -0.4010 -1.6551 -1.3377 -0.4687 -3.2299 -1.0627 -0.9375 -4.3056 -2.2189 -1.2680 -3.8181 -3.4974 -1.0337 -6.0107 -2.0986 -1.8569 -6.6463 -1.2668 -0.3199 -6.8204 -2.9469 0.2563 -0.5083 -0.0118 0.0352 1.3109 0.4463 -0.6294 1.5698 2.1104 -0.4992 3.1858 2.8194 1.0040 3.9814 2.7355 1.7283 3.9207 1.1292 1.5337 2.2836 0.3485 3.4635 4.6990 1.0995 3.8248 6.1994 0.4384 0.8731 5.3907 3.3250 -1.1116 3.2740 4.2755 -2.0980 1.0226 2.3732
-1.2587 -2.4778 -3.8254 -0.8447 -1.3685 -2.8358 -0.4053 -1.6488 -1.3384 -0.4665 -3.2223 -1.0623 -0.9354 -4.3011 -2.2161 -1.2616 -3.8179 -3.4954 -1.0315 -6.0089 -2.0953 -1.8547 -6.6487 -1.2615 -0.3195 -6.8207 -2.9468 0.2497 -0.5065 -0.0167 0.0354 1.3128 0.4375 -0.6330 1.5704 2.1041 -0.4951 3.1813 2.8278 1.0026 3.9822 2.7417 1.7321 3.9149 1.1288 1.5365 2.2784 0.3411 3.4702 4.6989 1.0961 3.8311 6.1992 0.4304 0.8578 5.3921 3.3270 -1.1010 3.2655 4.2861 -2.1084 1.0257 2.3731
-1.2589 -2.4784 -3.8251 -0.8458 -1.3686 -2.8365 -0.4061 -1.6474 -1.3384 -0.4652 -3.2208 -1.0621 -0.9351 -4.3000 -2.2153 -1.2590 -3.8181 -3.4950 -1.0314 -6.0084 -2.0943 -1.8547 -6.6490 -1.2606 -0.3199 -6.8207 -2.9464 0.2478 -0.5060 -0.0178 0.0355 1.3133 0.4354 -0.6333 1.5701 2.1030 -0.4950 3.1810 2.8289 1.0021 3.9824 2.7431 1.7330 3.9134 1.1288 1.5362 2.2780 0.3387 3.4713 4.6989 1.0953 3.8324 6.1990 0.4289 0.8542 5.3926 3.3271 -1.0972 3.2621 4.2894 -2.1110 1.0267 2.3727
-1.2594 -2.4796 -3.8242 -0.8470 -1.3691 -2.8365 -0.4068 -1.6460 -1.3383 -0.4639 -3.2193 -1.0619 -0.9350 -4.2988 -2.2141 -1.2564 -3.8184 -3.4942 -1.0314 -6.0078 -2.0941 -1.8537 -6.6497 -1.2592 -0.3212 -6.8199 -2.9480 0.2465 -0.5059 -0.0185 0.0360 1.3135 0.4337 -0.6351 1.5712 2.1006 -0.4942 3.1801 2.8305 1.0019 3.9821 2.7448 1.7343 3.9115 1.1291 1.5373 2.2764 0.3376 3.4724 4.6992 1.0943 3.8330 6.1994 0.4267 0.8508 5.3930 3.3274 -1.0951 3.2608 4.2914 -2.1130 1.0272 2.3729
-1.2602 -2.4801 -3.8238 -0.8486 -1.3694 -2.8368 -0.4078 -1.6443 -1.3381 -0.4626 -3.2175 -1.0620 -0.9337 -4.2976 -2.2138 -1.2547 -3.8183 -3.4940 -1.0315 -6.0071 -2.0934 -1.8535 -6.6501 -1.2581 -0.3216 -6.8199 -2.9480 0.2444 -0.5054 -0.0196 0.0364 1.3139 0.4319 -0.6346 1.5703 2.1000 -0.4935 3.1793 2.8322 1.0016 3.9823 2.7464 1.7346 3.9101 1.1282 1.5395 2.2738 0.3375 3.4735 4.6993 1.0933 3.8338 6.1996 0.4247 0.8475 5.3932 3.3278 -1.0937 3.2598 4.2929 -2.1155 1.0281 2.3726
-1.2616 -2.4844 -3.8208 -0.8547 -1.3714 -2.8374 -0.4126 -1.6367 -1.3375 -0.4553 -3.2100 -1.0628 -0.9296 -4.2917 -2.2107 -1.2457 -3.8191 -3.4914 -1.0295 -6.0025 -2.0906 -1.8520 -6.6523 -1.2518 -0.3270 -6.8177 -2.9506 0.2344 -0.5027 -0.0250 0.0388 1.3156 0.4232 -0.6358 1.5694 2.0932 -0.4882 3.1733 2.8413 0.9977 3.9832 2.7529 1.7395 3.8999 1.1277 1.5466 2.2653 0.3342 3.4780 4.6997 1.0894 3.8364 6.2007 0.4162 0.8310 5.3964 3.3269 -1.0834 3.2526 4.3020 -2.1268 1.0325 2.3715
-1.3471 -2.5311 -3.8301 -0.8906 -1.4196 -2.8494 -0.3755 -1.6685 -1.3702 -0.4434 -3.2641 -1.0856 -0.9192 -4.3467 -2.2299 -1.3001 -3.8685 -3.5011 -1.0692 -6.0588 -2.1097 -1.9494 -6.6996 -1.2790 -0.3945 -6.8937 -2.9474 0.3051 -0.5027 -0.0854 0.1405 1.3083 0.4078 -0.6117 1.5850 2.0481 -0.2097 2.9676 3.0682 0.6363 4.2926 2.4394 1.8069 3.9257 1.1825 1.5952 2.3362 0.3041 3.4809 4.8518 1.1692 3.8397 6.3537 0.5962 1.0356 5.2649 3.5544 -1.2795 3.3927 4.1415 -2.0505 0.9749 2.3764
1.5606 -3.1505 -2.1807 1.2347 -1.9345 -1.3190 -0.1344 -1.6801 -0.8212 -1.1478 -2.7382 -1.2485 -0.7358 -3.9557 -2.1437 0.5974 -4.0561 -2.5597 -1.7323 -5.1552 -2.6769 -2.7580 -5.5826 -2.0150 -1.4734 -5.7965 -3.8346 -0.6837 -0.3226 0.0914 0.1966 0.8744 0.9539 -0.7217 1.5290 2.2715 -0.0254 2.8583 3.0604 0.3395 4.0989 2.0940 1.2579 3.5730 0.7865 0.6456 2.2095 0.0213 1.5809 4.8936 -0.2865 3.0727 5.2800 -0.6586 0.9858 5.1545 2.9062 -0.8704 3.3532 4.2126 -1.1889 0.5474 3.3466
1.5805 -3.3873 -2.0887 1.2933 -2.1228 -1.2725 -0.0926 -1.7387 -0.8472 -1.1505 -2.7407 -1.3205 -0.7724 -4.0214 -2.1555 0.5776 -4.2274 -2.4997 -1.8153 -5.1737 -2.7309 -2.8177 -5.6601 -2.0558 -1.6053 -5.7441 -3.9490 -0.6154 -0.2997 -0.0253 0.2319 0.9243 0.9025 -0.6539 1.5062 2.2790 -0.4219 3.0782 2.9344 0.7496 3.9828 2.3668 1.2695 3.6742 0.7801 0.6885 2.2822 0.0082 1.6313 5.0074 -0.2751 3.1604 5.5038 -0.5732 0.5634 5.3895 2.8139 -0.6901 3.2674 4.3799 -1.1110 0.5002 3.3286
1.5925 -3.5812 -1.9476 1.3334 -2.2766 -1.1790 -0.0630 -1.7851 -0.8570 -1.1471 -2.7344 -1.3819 -0.7831 -4.0698 -2.1667 0.5678 -4.3717 -2.3986 -1.8578 -5.1747 -2.8158 -2.8952 -5.6438 -2.1778 -1.6416 -5.7065 -4.0490 -0.5648 -0.2709 -0.0972 0.3125 0.9119 0.9477 -0.6717 1.5299 2.2608 -0.5013 3.1345 2.9219 0.7155 4.0660 2.4113 1.0809 3.8348 0.7066 0.9704 2.2263 0.1163 2.5824 4.6854 0.1642 2.5230 5.8793 -0.9398 0.4375 5.5034 2.8131 -0.8232 3.3438 4.3800 -1.1672 0.4996 3.2884
1.5944 -3.5856 -1.9350 1.3331 -2.2751 -1.1769 -0.0685 -1.7824 -0.8694 -1.1508 -2.7375 -1.3924 -0.7812 -4.0776 -2.1690 0.5694 -4.3832 -2.3860 -1.8566 -5.1813 -2.8215 -2.8921 -5.6448 -2.1796 -1.6419 -5.7042 -4.0535 -0.5787 -0.2601 -0.1057 0.3069 0.9190 0.9488 -0.6846 1.5291 2.2624 -0.5380 3.1563 2.8921 0.7279 4.0603 2.4110 1.0845 3.8390 0.7151 0.9764 2.2253 0.1137 2.5821 4.6833 0.1733 2.5203 5.8794 -0.9321 0.4571 5.5064 2.8111 -0.8221 3.3377 4.3864 -1.1377 0.4960 3.3072
1.4882 -3.9753 -1.8239 1.3439 -2.5891 -1.1841 0.0014 -1.8369 -0.9978 -1.1759 -2.7468 -1.5546 -0.9087 -4.1856 -2.2420 0.4196 -4.6488 -2.3583 -2.0404 -5.2874 -2.8479 -3.0446 -5.8498 -2.1157 -1.9264 -5.7980 -4.1019 -0.3797 -0.2127 -0.3340 0.4133 1.0384 0.7436 -0.6309 1.5340 2.1386 -0.1028 2.8968 3.0842 0.3452 4.2869 2.2600 1.4265 3.9610 0.8728 1.0162 2.4762 -0.0404 1.8244 5.5119 -0.1043 3.2432 6.3640 -0.1571 0.8098 5.3685 3.2394 -1.0233 3.2802 4.3131 -1.0991 0.4123 3.2103
1.4888 -3.9702 -1.8319 1.3502 -2.5842 -1.1891 0.0000 -1.8448 -0.9927 -1.1747 -2.7462 -1.5584 -0.9050 -4.1985 -2.2328 0.4188 -4.6562 -2.3524 -2.0450 -5.2975 -2.8422 -3.0493 -5.8469 -2.1218 -1.9295 -5.7943 -4.1084 -0.3899 -0.2026 -0.3477 0.4338 1.0309 0.7581 -0.6247 1.5333 2.1436 -0.0954 2.8962 3.0852 0.3419 4.2890 2.2540 1.4443 3.9592 0.8861 1.0049 2.4828 -0.0448 1.7963 5.5238 -0.1125 3.2483 6.3648 -0.1485 0.8120 5.3694 3.2390 -1.0229 3.2773 4.3131 -1.1028 0.4148 3.2043
1.4579 -4.0723 -1.9153 1.3803 -2.6781 -1.2721 0.0319 -1.8803 -1.0238 -1.1755 -2.7723 -1.5752 -0.9497 -4.2564 -2.2328 0.3619 -4.7425 -2.3794 -2.1170 -5.3500 -2.8403 -3.0952 -5.9323 -2.1068 -2.0480 -5.8235 -4.1361 -0.2973 -0.1985 -0.3967 0.5163 1.0456 0.7356 -0.5493 1.5151 2.1423 -0.2200 2.9822 3.0449 0.3493 4.3565 2.3227 1.4521 4.0471 0.9081 1.0374 2.5582 -0.0341 1.8345 5.6597 -0.0707 3.2749 6.5297 0.0140 0.7911 5.4022 3.3174 -1.1066 3.2723 4.2838 -0.9290 0.3377 3.2145
1.4552 -4.0767 -1.8408 1.3626 -2.6771 -1.2188 0.0280 -1.8641 -1.0288 -1.1759 -2.7621 -1.5849 -0.9453 -4.2339 -2.2468 0.3708 -4.7273 -2.3675 -2.1032 -5.3337 -2.8435 -3.0924 -5.9165 -2.0994 -2.0194 -5.8239 -4.1197 -0.3098 -0.1987 -0.4073 0.4707 1.0631 0.7056 -0.5006 1.4945 2.1583 -0.4603 3.0746 2.8862 0.7381 4.1541 2.5048 1.4475 4.0283 0.8833 1.0776 2.5381 -0.0409 1.8363 5.6584 -0.0235 3.2358 6.5488 -0.0051 0.4568 5.5177 3.1075 -0.8654 3.1585 4.3945 -1.0072 0.3779 3.1869
1.4562 -4.0712 -1.8520 1.3666 -2.6714 -1.2268 0.0269 -1.8713 -1.0252 -1.1759 -2.7627 -1.5851 -0.9425 -4.2476 -2.2344 0.3688 -4.7327 -2.3648 -2.1058 -5.3429 -2.8405 -3.0965 -5.9147 -2.1030 -2.0231 -5.8210 -4.1241 -0.3191 -0.1888 -0.4209 0.4958 1.0556 0.7208 -0.5004 1.4935 2.1584 -0.4756 3.0829 2.8756 0.7573 4.1462 2.5170 1.4688 4.0256 0.8965 1.0570 2.5484 -0.0486 1.8108 5.6684 -0.0297 3.2414 6.5493 0.0049 0.4452 5.5264 3.0960 -0.8622 3.1540 4.3964 -0.9937 0.3741 3.1896
1.4766 -4.0641 -1.9120 1.3815 -2.6592 -1.2782 0.0127 -1.8939 -1.0472 -1.1930 -2.8061 -1.5697 -0.9477 -4.2974 -2.2257 0.3717 -4.7688 -2.3505 -2.1156 -5.3813 -2.8552 -3.0808 -5.9358 -2.1225 -2.0462 -5.8176 -4.1560 -0.3361 -0.1651 -0.4266 0.4906 1.0470 0.7618 -0.5582 1.5278 2.1592 -0.0919 2.9485 3.1067 0.3381 4.3682 2.2720 1.4621 4.0739 0.9417 1.0401 2.5689 -0.0007 1.8185 5.6560 -0.0557 3.2456 6.5371 0.0279 0.7971 5.4321 3.2767 -1.0955 3.2638 4.2881 -0.9697 0.3661 3.1660

>  <SMILES_CANONICAL> (ZINC00062388)
O[CH+][C@H]1[O-][C@@H](Nc2cccc(c2)[N](=O)O)[C@H]([C@H]([C@H]1O)O)O	ZINC00062388

>  <FINGERPRINT> (ZINC00062388)
0000000000000000010000000000001000000001010000000000000000010001000000000001000000010000000000000000000000000001000001110000000010100000001110001000000011000000000000000000000000100000000000000000000000000000000000000000000010000000000000000000000000000000000101000000000000000010000001000000000100000000000010001110000000000100001000000000000000000100010000000000000110000000000000000000000000000001000000000000000000000011100000000000000100000000001000000001001000000001010000000000000000011010100100000001100000000000000001001000000000000000000000001000000000000000000000000001100111000000001010000000000000000000010000000000000000000001010000000001001000000000001000010001100000010000000000000001000000100111000000000000000010000010000010000001000000001000000100000000000000001000000001000000000001000000000100000001000000000010000010000000000000000100000000000001000000000000010000001110000000000000100000001000001000000000100000000000011000000000000000000000000000000000000000000000000000000100000000000000101000000000

>  <MACCS166> (ZINC00062388)
000000000000000000000001000000000000000000001000000011011000001000011111000100010000000010010110111001000000010000001011010100100110101110110110110101110001111010111000

>  <OB_MW> (ZINC00062388)
300.096

>  <OB_logP> (ZINC00062388)
-0.1638

>  <OB_PSA> (ZINC00062388)
165.67

>  <OB_MR> (ZINC00062388)
69.8524

>  <OB_ATOMIC_CHARGES> (ZINC00062388)
-0.1260999733 0.0580147031 -0.2175527818 -0.2169942529 -0.2200300867 -0.1260999733 0.5448071468 -0.2547268247 -0.6775071878 0.0030217291 0.0161358345 0.0241572476 0.040091623 0.2155518692 0.2210532899 0.1875832646 0.2169715806 0.0443365655 0.0654113192 0.1441589155 0.057715992

>  <MCT_HBD> (ZINC00062388)
7

>  <MCT_HBA> (ZINC00062388)
9

$$$$
